Circuit: * C:\users\netogu\Desktop\Projects\nixie-clock\sim\nixie_ac_dc_power.asc

.OP point found by inspection.

Date: Sun Jun 05 22:19:00 2022
Total elapsed time: 25.920 seconds.

tnom = 27
temp = 27
method = modified trap
totiter = 9059768
traniter = 9059768
tranpoints = 4195430
accept = 2992357
rejected = 1203073
matrix size = 16
fillins = 12
solver = Normal
Matrix Compiler1: 1.34 KB object code size  0.5/0.4/[0.3]
Matrix Compiler2: off  [0.3]/0.4/0.6

